data_image0
_chemical_formula_structural       Pt8
_chemical_formula_sum              "Pt8"
_cell_length_a       5.656854249492381
_cell_length_b       5.656854249492381
_cell_length_c       5.656854249492381
_cell_angle_alpha    60.00000000000001
_cell_angle_beta     60.00000000000001
_cell_angle_gamma    60.00000000000001

_space_group_name_H-M_alt    "P 1"
_space_group_IT_number       1

loop_
  _space_group_symop_operation_xyz
  'x, y, z'

loop_
  _atom_site_type_symbol
  _atom_site_label
  _atom_site_symmetry_multiplicity
  _atom_site_fract_x
  _atom_site_fract_y
  _atom_site_fract_z
  _atom_site_occupancy
  Pt  Pt1       1.0  0.0  0.0  0.0  1.0000
  Pt  Pt2       1.0  0.0  2.266233259184197e-17  0.4999999999999999  1.0000
  Pt  Pt3       1.0  0.0  0.4999999999999999  0.0  1.0000
  Pt  Pt4       1.0  7.850462293418875e-17  0.4999999999999998  0.4999999999999999  1.0000
  Pt  Pt5       1.0  0.4999999999999999  0.0  0.0  1.0000
  Pt  Pt6       1.0  0.5000000000000001  2.266233259184197e-17  0.4999999999999999  1.0000
  Pt  Pt7       1.0  0.5000000000000001  0.4999999999999999  0.0  1.0000
  Pt  Pt8       1.0  0.5000000000000001  0.4999999999999998  0.4999999999999999  1.0000
